LTspice 24.1.7 for Windows
Circuit: G:\Meine Ablage\4.Semester\VU Schaltungstechnik\PR\1.Labor\Ausgangskennlinie.net
Start Time: Thu Apr 30 10:30:25 2026
solver = Normal
Maximum thread count: 8
tnom = 27
temp = 27
method = modified trap
G:\Meine Ablage\4.Semester\VU Schaltungstechnik\PR\1.Labor\Ausgangskennlinie.net(4): Missing value, assuming 0V @ DC.

V1 N001 0
^^^^^^^^^
G:\Meine Ablage\4.Semester\VU Schaltungstechnik\PR\1.Labor\Ausgangskennlinie.net(5): Missing value, assuming 0V @ DC.

V2 N002 0
^^^^^^^^^
.step V2=0.66 
.step V2=0.6875 
.step V2=0.715 
.step V2=0.7425 
.step V2=0.77 
.step V2=0.7975 
.step V2=0.825 
.step V2=0.8525 
.step V2=0.88 
Total elapsed time: 0.494 seconds.

Files loaded:
G:\Meine Ablage\4.Semester\VU Schaltungstechnik\PR\1.Labor\Ausgangskennlinie.net
C:\Users\User\AppData\Local\LTspice\lib\cmp\standard.bjt

