LTspice 24.1.7 for Windows
Circuit: G:\Meine Ablage\4.Semester\VU Schaltungstechnik\PR\1.Labor\Draft1.net
Start Time: Tue Mar 24 16:08:38 2026
solver = Normal
Maximum thread count: 8
tnom = 27
temp = 27
method = modified trap
WARNING: Node n003 is floating.

.OP point found by inspection.
Total elapsed time: 0.765 seconds.

Files loaded:
G:\Meine Ablage\4.Semester\VU Schaltungstechnik\PR\1.Labor\Draft1.net

