LTspice 24.1.7 for Windows
Circuit: G:\Meine Ablage\4.Semester\VU Schaltungstechnik\PR\1.Labor\Eingangskennlinie.net
Start Time: Thu Apr 30 10:28:22 2026
solver = Normal
Maximum thread count: 8
tnom = 27
temp = 27
method = modified trap
G:\Meine Ablage\4.Semester\VU Schaltungstechnik\PR\1.Labor\Eingangskennlinie.net(5): Missing value, assuming 0V @ DC.

V2 N002 0
^^^^^^^^^
.step 
Total elapsed time: 0.337 seconds.

Files loaded:
G:\Meine Ablage\4.Semester\VU Schaltungstechnik\PR\1.Labor\Eingangskennlinie.net
C:\Users\User\AppData\Local\LTspice\lib\cmp\standard.bjt

