LTspice 24.1.7 for Windows
Circuit: G:\Meine Ablage\4.Semester\VU Schaltungstechnik\PR\1.Labor\Emitterverstärkerschaltung.net
Start Time: Thu Apr 30 14:17:49 2026
solver = Normal
Maximum thread count: 8
tnom = 27
temp = 27
method = modified trap
Direct Newton iteration for .op point succeeded.
Total elapsed time: 0.348 seconds.

Files loaded:
G:\Meine Ablage\4.Semester\VU Schaltungstechnik\PR\1.Labor\Emitterverstärkerschaltung.net
C:\Users\User\AppData\Local\LTspice\lib\cmp\standard.bjt

